*SPEF "ieee 1481-1999"
*DESIGN "demux_1_8"
*DATE "11:11:11 Fri 11 11, 1111"
*VENDOR "OpenRCX"
*PROGRAM "Parallel Extraction"
*VERSION "1.0"
*DESIGN_FLOW "NAME_SCOPE LOCAL" "PIN_CAP NONE"
*DIVIDER /
*DELIMITER :
*BUS_DELIMITER []
*T_UNIT 1 NS
*C_UNIT 1 PF
*R_UNIT 1 OHM
*L_UNIT 1 HENRY

*NAME_MAP
*3 clk
*4 i
*5 o0
*6 o1
*7 o2
*8 o3
*9 o4
*10 o5
*11 o6
*12 o7
*13 sel[0]
*14 sel[1]
*15 sel[2]
*16 _00_
*17 _01_
*18 _02_
*19 _03_
*20 _04_
*21 _05_
*22 _06_
*23 _07_
*24 _08_
*25 _09_
*26 _10_
*27 _11_
*28 _12_
*29 _13_
*30 _14_
*31 clknet_0_clk
*32 clknet_1_0__leaf_clk
*33 clknet_1_1__leaf_clk
*34 net1
*35 net10
*36 net11
*37 net12
*38 net13
*39 net14
*40 net15
*41 net2
*42 net3
*43 net4
*44 net5
*45 net6
*46 net7
*47 net8
*48 net9
*49 ANTENNA_1
*50 ANTENNA_2
*51 ANTENNA_3
*52 ANTENNA_4
*53 ANTENNA_5
*54 ANTENNA_6
*55 FILLER_0_0_1005
*56 FILLER_0_0_1009
*57 FILLER_0_0_1021
*58 FILLER_0_0_1033
*59 FILLER_0_0_1037
*60 FILLER_0_0_1049
*61 FILLER_0_0_1061
*62 FILLER_0_0_1065
*63 FILLER_0_0_1077
*64 FILLER_0_0_1089
*65 FILLER_0_0_109
*66 FILLER_0_0_1093
*67 FILLER_0_0_1105
*68 FILLER_0_0_1117
*69 FILLER_0_0_1121
*70 FILLER_0_0_113
*71 FILLER_0_0_1133
*72 FILLER_0_0_1145
*73 FILLER_0_0_1149
*74 FILLER_0_0_1161
*75 FILLER_0_0_1173
*76 FILLER_0_0_1177
*77 FILLER_0_0_1189
*78 FILLER_0_0_1201
*79 FILLER_0_0_1205
*80 FILLER_0_0_1217
*81 FILLER_0_0_1229
*82 FILLER_0_0_1233
*83 FILLER_0_0_1245
*84 FILLER_0_0_125
*85 FILLER_0_0_1257
*86 FILLER_0_0_1261
*87 FILLER_0_0_1273
*88 FILLER_0_0_1285
*89 FILLER_0_0_1289
*90 FILLER_0_0_1301
*91 FILLER_0_0_1313
*92 FILLER_0_0_1317
*93 FILLER_0_0_1329
*94 FILLER_0_0_1341
*95 FILLER_0_0_1345
*96 FILLER_0_0_1351
*97 FILLER_0_0_1358
*98 FILLER_0_0_137
*99 FILLER_0_0_1370
*100 FILLER_0_0_1373
*101 FILLER_0_0_1385
*102 FILLER_0_0_1397
*103 FILLER_0_0_1401
*104 FILLER_0_0_141
*105 FILLER_0_0_1413
*106 FILLER_0_0_1425
*107 FILLER_0_0_1429
*108 FILLER_0_0_1441
*109 FILLER_0_0_1453
*110 FILLER_0_0_1457
*111 FILLER_0_0_1469
*112 FILLER_0_0_1481
*113 FILLER_0_0_1485
*114 FILLER_0_0_1493
*115 FILLER_0_0_153
*116 FILLER_0_0_165
*117 FILLER_0_0_169
*118 FILLER_0_0_181
*119 FILLER_0_0_193
*120 FILLER_0_0_197
*121 FILLER_0_0_209
*122 FILLER_0_0_21
*123 FILLER_0_0_221
*124 FILLER_0_0_225
*125 FILLER_0_0_237
*126 FILLER_0_0_249
*127 FILLER_0_0_253
*128 FILLER_0_0_265
*129 FILLER_0_0_27
*130 FILLER_0_0_277
*131 FILLER_0_0_281
*132 FILLER_0_0_29
*133 FILLER_0_0_293
*134 FILLER_0_0_305
*135 FILLER_0_0_309
*136 FILLER_0_0_321
*137 FILLER_0_0_333
*138 FILLER_0_0_337
*139 FILLER_0_0_349
*140 FILLER_0_0_361
*141 FILLER_0_0_365
*142 FILLER_0_0_377
*143 FILLER_0_0_389
*144 FILLER_0_0_393
*145 FILLER_0_0_405
*146 FILLER_0_0_41
*147 FILLER_0_0_417
*148 FILLER_0_0_421
*149 FILLER_0_0_433
*150 FILLER_0_0_441
*151 FILLER_0_0_449
*152 FILLER_0_0_461
*153 FILLER_0_0_473
*154 FILLER_0_0_477
*155 FILLER_0_0_489
*156 FILLER_0_0_501
*157 FILLER_0_0_505
*158 FILLER_0_0_517
*159 FILLER_0_0_529
*160 FILLER_0_0_53
*161 FILLER_0_0_533
*162 FILLER_0_0_545
*163 FILLER_0_0_557
*164 FILLER_0_0_561
*165 FILLER_0_0_57
*166 FILLER_0_0_573
*167 FILLER_0_0_585
*168 FILLER_0_0_589
*169 FILLER_0_0_601
*170 FILLER_0_0_613
*171 FILLER_0_0_617
*172 FILLER_0_0_629
*173 FILLER_0_0_641
*174 FILLER_0_0_645
*175 FILLER_0_0_657
*176 FILLER_0_0_669
*177 FILLER_0_0_673
*178 FILLER_0_0_685
*179 FILLER_0_0_69
*180 FILLER_0_0_697
*181 FILLER_0_0_701
*182 FILLER_0_0_713
*183 FILLER_0_0_725
*184 FILLER_0_0_729
*185 FILLER_0_0_741
*186 FILLER_0_0_753
*187 FILLER_0_0_757
*188 FILLER_0_0_769
*189 FILLER_0_0_781
*190 FILLER_0_0_785
*191 FILLER_0_0_797
*192 FILLER_0_0_809
*193 FILLER_0_0_81
*194 FILLER_0_0_813
*195 FILLER_0_0_825
*196 FILLER_0_0_837
*197 FILLER_0_0_841
*198 FILLER_0_0_85
*199 FILLER_0_0_853
*200 FILLER_0_0_865
*201 FILLER_0_0_869
*202 FILLER_0_0_881
*203 FILLER_0_0_893
*204 FILLER_0_0_897
*205 FILLER_0_0_9
*206 FILLER_0_0_915
*207 FILLER_0_0_923
*208 FILLER_0_0_925
*209 FILLER_0_0_937
*210 FILLER_0_0_949
*211 FILLER_0_0_953
*212 FILLER_0_0_965
*213 FILLER_0_0_97
*214 FILLER_0_0_977
*215 FILLER_0_0_981
*216 FILLER_0_0_993
*217 FILLER_0_100_1005
*218 FILLER_0_100_1017
*219 FILLER_0_100_1029
*220 FILLER_0_100_1035
*221 FILLER_0_100_1037
*222 FILLER_0_100_1049
*223 FILLER_0_100_1061
*224 FILLER_0_100_1073
*225 FILLER_0_100_1085
*226 FILLER_0_100_109
*227 FILLER_0_100_1091
*228 FILLER_0_100_1093
*229 FILLER_0_100_1105
*230 FILLER_0_100_1117
*231 FILLER_0_100_1129
*232 FILLER_0_100_1141
*233 FILLER_0_100_1147
*234 FILLER_0_100_1149
*235 FILLER_0_100_1161
*236 FILLER_0_100_1173
*237 FILLER_0_100_1185
*238 FILLER_0_100_1197
*239 FILLER_0_100_1203
*240 FILLER_0_100_1205
*241 FILLER_0_100_121
*242 FILLER_0_100_1217
*243 FILLER_0_100_1229
*244 FILLER_0_100_1241
*245 FILLER_0_100_1253
*246 FILLER_0_100_1259
*247 FILLER_0_100_1261
*248 FILLER_0_100_1273
*249 FILLER_0_100_1285
*250 FILLER_0_100_1297
*251 FILLER_0_100_1309
*252 FILLER_0_100_1315
*253 FILLER_0_100_1317
*254 FILLER_0_100_1329
*255 FILLER_0_100_133
*256 FILLER_0_100_1341
*257 FILLER_0_100_1353
*258 FILLER_0_100_1365
*259 FILLER_0_100_1371
*260 FILLER_0_100_1373
*261 FILLER_0_100_1385
*262 FILLER_0_100_139
*263 FILLER_0_100_1397
*264 FILLER_0_100_1409
*265 FILLER_0_100_141
*266 FILLER_0_100_1421
*267 FILLER_0_100_1427
*268 FILLER_0_100_1429
*269 FILLER_0_100_1441
*270 FILLER_0_100_1453
*271 FILLER_0_100_1465
*272 FILLER_0_100_1477
*273 FILLER_0_100_1483
*274 FILLER_0_100_1485
*275 FILLER_0_100_1493
*276 FILLER_0_100_15
*277 FILLER_0_100_153
*278 FILLER_0_100_165
*279 FILLER_0_100_177
*280 FILLER_0_100_189
*281 FILLER_0_100_195
*282 FILLER_0_100_197
*283 FILLER_0_100_209
*284 FILLER_0_100_221
*285 FILLER_0_100_233
*286 FILLER_0_100_245
*287 FILLER_0_100_251
*288 FILLER_0_100_253
*289 FILLER_0_100_265
*290 FILLER_0_100_27
*291 FILLER_0_100_277
*292 FILLER_0_100_289
*293 FILLER_0_100_29
*294 FILLER_0_100_3
*295 FILLER_0_100_301
*296 FILLER_0_100_307
*297 FILLER_0_100_309
*298 FILLER_0_100_321
*299 FILLER_0_100_333
*300 FILLER_0_100_345
*301 FILLER_0_100_357
*302 FILLER_0_100_363
*303 FILLER_0_100_365
*304 FILLER_0_100_377
*305 FILLER_0_100_389
*306 FILLER_0_100_401
*307 FILLER_0_100_41
*308 FILLER_0_100_413
*309 FILLER_0_100_419
*310 FILLER_0_100_421
*311 FILLER_0_100_433
*312 FILLER_0_100_445
*313 FILLER_0_100_457
*314 FILLER_0_100_469
*315 FILLER_0_100_475
*316 FILLER_0_100_477
*317 FILLER_0_100_489
*318 FILLER_0_100_501
*319 FILLER_0_100_513
*320 FILLER_0_100_525
*321 FILLER_0_100_53
*322 FILLER_0_100_531
*323 FILLER_0_100_533
*324 FILLER_0_100_545
*325 FILLER_0_100_557
*326 FILLER_0_100_569
*327 FILLER_0_100_581
*328 FILLER_0_100_587
*329 FILLER_0_100_589
*330 FILLER_0_100_601
*331 FILLER_0_100_613
*332 FILLER_0_100_625
*333 FILLER_0_100_637
*334 FILLER_0_100_643
*335 FILLER_0_100_645
*336 FILLER_0_100_65
*337 FILLER_0_100_657
*338 FILLER_0_100_669
*339 FILLER_0_100_681
*340 FILLER_0_100_693
*341 FILLER_0_100_699
*342 FILLER_0_100_701
*343 FILLER_0_100_713
*344 FILLER_0_100_725
*345 FILLER_0_100_737
*346 FILLER_0_100_749
*347 FILLER_0_100_755
*348 FILLER_0_100_757
*349 FILLER_0_100_769
*350 FILLER_0_100_77
*351 FILLER_0_100_781
*352 FILLER_0_100_793
*353 FILLER_0_100_805
*354 FILLER_0_100_811
*355 FILLER_0_100_813
*356 FILLER_0_100_825
*357 FILLER_0_100_83
*358 FILLER_0_100_837
*359 FILLER_0_100_849
*360 FILLER_0_100_85
*361 FILLER_0_100_861
*362 FILLER_0_100_867
*363 FILLER_0_100_869
*364 FILLER_0_100_881
*365 FILLER_0_100_893
*366 FILLER_0_100_905
*367 FILLER_0_100_917
*368 FILLER_0_100_923
*369 FILLER_0_100_925
*370 FILLER_0_100_937
*371 FILLER_0_100_949
*372 FILLER_0_100_961
*373 FILLER_0_100_97
*374 FILLER_0_100_973
*375 FILLER_0_100_979
*376 FILLER_0_100_981
*377 FILLER_0_100_993
*378 FILLER_0_101_1001
*379 FILLER_0_101_1007
*380 FILLER_0_101_1009
*381 FILLER_0_101_1021
*382 FILLER_0_101_1043
*383 FILLER_0_101_105
*384 FILLER_0_101_1055
*385 FILLER_0_101_1063
*386 FILLER_0_101_1065
*387 FILLER_0_101_1077
*388 FILLER_0_101_1089
*389 FILLER_0_101_1101
*390 FILLER_0_101_111
*391 FILLER_0_101_1113
*392 FILLER_0_101_1119
*393 FILLER_0_101_1121
*394 FILLER_0_101_113
*395 FILLER_0_101_1133
*396 FILLER_0_101_1145
*397 FILLER_0_101_1157
*398 FILLER_0_101_1169
*399 FILLER_0_101_1175
*400 FILLER_0_101_1177
*401 FILLER_0_101_1189
*402 FILLER_0_101_1201
*403 FILLER_0_101_1213
*404 FILLER_0_101_1225
*405 FILLER_0_101_1231
*406 FILLER_0_101_1233
*407 FILLER_0_101_1245
*408 FILLER_0_101_125
*409 FILLER_0_101_1257
*410 FILLER_0_101_1269
*411 FILLER_0_101_1281
*412 FILLER_0_101_1287
*413 FILLER_0_101_1289
*414 FILLER_0_101_1301
*415 FILLER_0_101_1313
*416 FILLER_0_101_1325
*417 FILLER_0_101_1337
*418 FILLER_0_101_1343
*419 FILLER_0_101_1345
*420 FILLER_0_101_1357
*421 FILLER_0_101_1369
*422 FILLER_0_101_137
*423 FILLER_0_101_1381
*424 FILLER_0_101_1393
*425 FILLER_0_101_1399
*426 FILLER_0_101_1401
*427 FILLER_0_101_1413
*428 FILLER_0_101_1425
*429 FILLER_0_101_1437
*430 FILLER_0_101_1449
*431 FILLER_0_101_1455
*432 FILLER_0_101_1457
*433 FILLER_0_101_1469
*434 FILLER_0_101_1481
*435 FILLER_0_101_149
*436 FILLER_0_101_1493
*437 FILLER_0_101_15
*438 FILLER_0_101_161
*439 FILLER_0_101_167
*440 FILLER_0_101_169
*441 FILLER_0_101_181
*442 FILLER_0_101_193
*443 FILLER_0_101_205
*444 FILLER_0_101_217
*445 FILLER_0_101_223
*446 FILLER_0_101_225
*447 FILLER_0_101_237
*448 FILLER_0_101_249
*449 FILLER_0_101_261
*450 FILLER_0_101_27
*451 FILLER_0_101_273
*452 FILLER_0_101_279
*453 FILLER_0_101_281
*454 FILLER_0_101_293
*455 FILLER_0_101_3
*456 FILLER_0_101_305
*457 FILLER_0_101_317
*458 FILLER_0_101_329
*459 FILLER_0_101_335
*460 FILLER_0_101_337
*461 FILLER_0_101_349
*462 FILLER_0_101_361
*463 FILLER_0_101_373
*464 FILLER_0_101_385
*465 FILLER_0_101_39
*466 FILLER_0_101_391
*467 FILLER_0_101_393
*468 FILLER_0_101_405
*469 FILLER_0_101_417
*470 FILLER_0_101_429
*471 FILLER_0_101_441
*472 FILLER_0_101_447
*473 FILLER_0_101_449
*474 FILLER_0_101_461
*475 FILLER_0_101_473
*476 FILLER_0_101_485
*477 FILLER_0_101_497
*478 FILLER_0_101_503
*479 FILLER_0_101_505
*480 FILLER_0_101_51
*481 FILLER_0_101_517
*482 FILLER_0_101_529
*483 FILLER_0_101_541
*484 FILLER_0_101_55
*485 FILLER_0_101_553
*486 FILLER_0_101_559
*487 FILLER_0_101_561
*488 FILLER_0_101_57
*489 FILLER_0_101_573
*490 FILLER_0_101_585
*491 FILLER_0_101_597
*492 FILLER_0_101_609
*493 FILLER_0_101_615
*494 FILLER_0_101_617
*495 FILLER_0_101_629
*496 FILLER_0_101_641
*497 FILLER_0_101_653
*498 FILLER_0_101_665
*499 FILLER_0_101_671
*500 FILLER_0_101_673
*501 FILLER_0_101_685
*502 FILLER_0_101_69
*503 FILLER_0_101_697
*504 FILLER_0_101_709
*505 FILLER_0_101_721
*506 FILLER_0_101_727
*507 FILLER_0_101_729
*508 FILLER_0_101_741
*509 FILLER_0_101_753
*510 FILLER_0_101_765
*511 FILLER_0_101_777
*512 FILLER_0_101_783
*513 FILLER_0_101_785
*514 FILLER_0_101_797
*515 FILLER_0_101_809
*516 FILLER_0_101_81
*517 FILLER_0_101_821
*518 FILLER_0_101_833
*519 FILLER_0_101_839
*520 FILLER_0_101_841
*521 FILLER_0_101_853
*522 FILLER_0_101_865
*523 FILLER_0_101_877
*524 FILLER_0_101_889
*525 FILLER_0_101_895
*526 FILLER_0_101_897
*527 FILLER_0_101_909
*528 FILLER_0_101_921
*529 FILLER_0_101_93
*530 FILLER_0_101_933
*531 FILLER_0_101_945
*532 FILLER_0_101_951
*533 FILLER_0_101_953
*534 FILLER_0_101_965
*535 FILLER_0_101_977
*536 FILLER_0_101_989
*537 FILLER_0_102_1005
*538 FILLER_0_102_1017
*539 FILLER_0_102_1029
*540 FILLER_0_102_1035
*541 FILLER_0_102_1037
*542 FILLER_0_102_1049
*543 FILLER_0_102_1061
*544 FILLER_0_102_1073
*545 FILLER_0_102_1085
*546 FILLER_0_102_109
*547 FILLER_0_102_1091
*548 FILLER_0_102_1093
*549 FILLER_0_102_1105
*550 FILLER_0_102_1117
*551 FILLER_0_102_1129
*552 FILLER_0_102_1141
*553 FILLER_0_102_1147
*554 FILLER_0_102_1149
*555 FILLER_0_102_1161
*556 FILLER_0_102_1173
*557 FILLER_0_102_1185
*558 FILLER_0_102_1197
*559 FILLER_0_102_1203
*560 FILLER_0_102_1205
*561 FILLER_0_102_121
*562 FILLER_0_102_1217
*563 FILLER_0_102_1229
*564 FILLER_0_102_1241
*565 FILLER_0_102_1253
*566 FILLER_0_102_1259
*567 FILLER_0_102_1261
*568 FILLER_0_102_1273
*569 FILLER_0_102_1285
*570 FILLER_0_102_1297
*571 FILLER_0_102_1309
*572 FILLER_0_102_1315
*573 FILLER_0_102_1317
*574 FILLER_0_102_1329
*575 FILLER_0_102_133
*576 FILLER_0_102_1341
*577 FILLER_0_102_1353
*578 FILLER_0_102_1365
*579 FILLER_0_102_1371
*580 FILLER_0_102_1373
*581 FILLER_0_102_1385
*582 FILLER_0_102_139
*583 FILLER_0_102_1397
*584 FILLER_0_102_1409
*585 FILLER_0_102_141
*586 FILLER_0_102_1421
*587 FILLER_0_102_1427
*588 FILLER_0_102_1429
*589 FILLER_0_102_1441
*590 FILLER_0_102_1453
*591 FILLER_0_102_1465
*592 FILLER_0_102_1477
*593 FILLER_0_102_1483
*594 FILLER_0_102_1485
*595 FILLER_0_102_1493
*596 FILLER_0_102_15
*597 FILLER_0_102_153
*598 FILLER_0_102_165
*599 FILLER_0_102_177
*600 FILLER_0_102_189
*601 FILLER_0_102_195
*602 FILLER_0_102_197
*603 FILLER_0_102_209
*604 FILLER_0_102_221
*605 FILLER_0_102_233
*606 FILLER_0_102_245
*607 FILLER_0_102_251
*608 FILLER_0_102_253
*609 FILLER_0_102_265
*610 FILLER_0_102_27
*611 FILLER_0_102_277
*612 FILLER_0_102_289
*613 FILLER_0_102_29
*614 FILLER_0_102_3
*615 FILLER_0_102_301
*616 FILLER_0_102_307
*617 FILLER_0_102_309
*618 FILLER_0_102_321
*619 FILLER_0_102_333
*620 FILLER_0_102_345
*621 FILLER_0_102_357
*622 FILLER_0_102_363
*623 FILLER_0_102_365
*624 FILLER_0_102_377
*625 FILLER_0_102_389
*626 FILLER_0_102_401
*627 FILLER_0_102_41
*628 FILLER_0_102_413
*629 FILLER_0_102_419
*630 FILLER_0_102_421
*631 FILLER_0_102_433
*632 FILLER_0_102_445
*633 FILLER_0_102_457
*634 FILLER_0_102_469
*635 FILLER_0_102_475
*636 FILLER_0_102_477
*637 FILLER_0_102_489
*638 FILLER_0_102_501
*639 FILLER_0_102_513
*640 FILLER_0_102_525
*641 FILLER_0_102_53
*642 FILLER_0_102_531
*643 FILLER_0_102_533
*644 FILLER_0_102_545
*645 FILLER_0_102_557
*646 FILLER_0_102_569
*647 FILLER_0_102_581
*648 FILLER_0_102_587
*649 FILLER_0_102_589
*650 FILLER_0_102_601
*651 FILLER_0_102_613
*652 FILLER_0_102_625
*653 FILLER_0_102_637
*654 FILLER_0_102_643
*655 FILLER_0_102_645
*656 FILLER_0_102_65
*657 FILLER_0_102_657
*658 FILLER_0_102_669
*659 FILLER_0_102_681
*660 FILLER_0_102_693
*661 FILLER_0_102_699
*662 FILLER_0_102_701
*663 FILLER_0_102_713
*664 FILLER_0_102_725
*665 FILLER_0_102_737
*666 FILLER_0_102_749
*667 FILLER_0_102_755
*668 FILLER_0_102_757
*669 FILLER_0_102_769
*670 FILLER_0_102_77
*671 FILLER_0_102_781
*672 FILLER_0_102_793
*673 FILLER_0_102_805
*674 FILLER_0_102_811
*675 FILLER_0_102_813
*676 FILLER_0_102_825
*677 FILLER_0_102_83
*678 FILLER_0_102_837
*679 FILLER_0_102_849
*680 FILLER_0_102_85
*681 FILLER_0_102_861
*682 FILLER_0_102_867
*683 FILLER_0_102_869
*684 FILLER_0_102_881
*685 FILLER_0_102_893
*686 FILLER_0_102_905
*687 FILLER_0_102_917
*688 FILLER_0_102_923
*689 FILLER_0_102_925
*690 FILLER_0_102_937
*691 FILLER_0_102_949
*692 FILLER_0_102_961
*693 FILLER_0_102_97
*694 FILLER_0_102_973
*695 FILLER_0_102_979
*696 FILLER_0_102_981
*697 FILLER_0_102_993
*698 FILLER_0_103_1001
*699 FILLER_0_103_1007
*700 FILLER_0_103_1009
*701 FILLER_0_103_1021
*702 FILLER_0_103_1033
*703 FILLER_0_103_1045
*704 FILLER_0_103_105
*705 FILLER_0_103_1057
*706 FILLER_0_103_1063
*707 FILLER_0_103_1065
*708 FILLER_0_103_1077
*709 FILLER_0_103_1089
*710 FILLER_0_103_1101
*711 FILLER_0_103_111
*712 FILLER_0_103_1113
*713 FILLER_0_103_1119
*714 FILLER_0_103_1121
*715 FILLER_0_103_113
*716 FILLER_0_103_1133
*717 FILLER_0_103_1145
*718 FILLER_0_103_1157
*719 FILLER_0_103_1169
*720 FILLER_0_103_1175
*721 FILLER_0_103_1177
*722 FILLER_0_103_1189
*723 FILLER_0_103_1201
*724 FILLER_0_103_1213
*725 FILLER_0_103_1225
*726 FILLER_0_103_1231
*727 FILLER_0_103_1233
*728 FILLER_0_103_1245
*729 FILLER_0_103_125
*730 FILLER_0_103_1257
*731 FILLER_0_103_1269
*732 FILLER_0_103_1281
*733 FILLER_0_103_1287
*734 FILLER_0_103_1289
*735 FILLER_0_103_1301
*736 FILLER_0_103_1313
*737 FILLER_0_103_1325
*738 FILLER_0_103_1337
*739 FILLER_0_103_1343
*740 FILLER_0_103_1345
*741 FILLER_0_103_1357
*742 FILLER_0_103_1369
*743 FILLER_0_103_137
*744 FILLER_0_103_1381
*745 FILLER_0_103_1393
*746 FILLER_0_103_1399
*747 FILLER_0_103_1401
*748 FILLER_0_103_1413
*749 FILLER_0_103_1425
*750 FILLER_0_103_1437
*751 FILLER_0_103_1449
*752 FILLER_0_103_1455
*753 FILLER_0_103_1457
*754 FILLER_0_103_1469
*755 FILLER_0_103_1481
*756 FILLER_0_103_149
*757 FILLER_0_103_1493
*758 FILLER_0_103_15
*759 FILLER_0_103_161
*760 FILLER_0_103_167
*761 FILLER_0_103_169
*762 FILLER_0_103_181
*763 FILLER_0_103_193
*764 FILLER_0_103_205
*765 FILLER_0_103_217
*766 FILLER_0_103_223
*767 FILLER_0_103_225
*768 FILLER_0_103_237
*769 FILLER_0_103_249
*770 FILLER_0_103_261
*771 FILLER_0_103_27
*772 FILLER_0_103_273
*773 FILLER_0_103_279
*774 FILLER_0_103_281
*775 FILLER_0_103_293
*776 FILLER_0_103_3
*777 FILLER_0_103_305
*778 FILLER_0_103_317
*779 FILLER_0_103_329
*780 FILLER_0_103_335
*781 FILLER_0_103_337
*782 FILLER_0_103_349
*783 FILLER_0_103_361
*784 FILLER_0_103_373
*785 FILLER_0_103_385
*786 FILLER_0_103_39
*787 FILLER_0_103_391
*788 FILLER_0_103_393
*789 FILLER_0_103_405
*790 FILLER_0_103_417
*791 FILLER_0_103_429
*792 FILLER_0_103_441
*793 FILLER_0_103_447
*794 FILLER_0_103_449
*795 FILLER_0_103_461
*796 FILLER_0_103_473
*797 FILLER_0_103_485
*798 FILLER_0_103_497
*799 FILLER_0_103_503
*800 FILLER_0_103_505
*801 FILLER_0_103_51
*802 FILLER_0_103_517
*803 FILLER_0_103_529
*804 FILLER_0_103_541
*805 FILLER_0_103_55
*806 FILLER_0_103_553
*807 FILLER_0_103_559
*808 FILLER_0_103_561
*809 FILLER_0_103_57
*810 FILLER_0_103_573
*811 FILLER_0_103_585
*812 FILLER_0_103_597
*813 FILLER_0_103_609
*814 FILLER_0_103_615
*815 FILLER_0_103_617
*816 FILLER_0_103_629
*817 FILLER_0_103_641
*818 FILLER_0_103_653
*819 FILLER_0_103_665
*820 FILLER_0_103_671
*821 FILLER_0_103_673
*822 FILLER_0_103_685
*823 FILLER_0_103_69
*824 FILLER_0_103_697
*825 FILLER_0_103_709
*826 FILLER_0_103_721
*827 FILLER_0_103_727
*828 FILLER_0_103_729
*829 FILLER_0_103_741
*830 FILLER_0_103_753
*831 FILLER_0_103_765
*832 FILLER_0_103_777
*833 FILLER_0_103_783
*834 FILLER_0_103_785
*835 FILLER_0_103_797
*836 FILLER_0_103_809
*837 FILLER_0_103_81
*838 FILLER_0_103_821
*839 FILLER_0_103_833
*840 FILLER_0_103_839
*841 FILLER_0_103_841
*842 FILLER_0_103_853
*843 FILLER_0_103_865
*844 FILLER_0_103_877
*845 FILLER_0_103_889
*846 FILLER_0_103_895
*847 FILLER_0_103_897
*848 FILLER_0_103_909
*849 FILLER_0_103_921
*850 FILLER_0_103_93
*851 FILLER_0_103_933
*852 FILLER_0_103_945
*853 FILLER_0_103_951
*854 FILLER_0_103_953
*855 FILLER_0_103_965
*856 FILLER_0_103_977
*857 FILLER_0_103_989
*858 FILLER_0_104_1005
*859 FILLER_0_104_1017
*860 FILLER_0_104_1029
*861 FILLER_0_104_1035
*862 FILLER_0_104_1037
*863 FILLER_0_104_1049
*864 FILLER_0_104_1061
*865 FILLER_0_104_1073
*866 FILLER_0_104_1085
*867 FILLER_0_104_109
*868 FILLER_0_104_1091
*869 FILLER_0_104_1093
*870 FILLER_0_104_1105
*871 FILLER_0_104_1117
*872 FILLER_0_104_1129
*873 FILLER_0_104_1141
*874 FILLER_0_104_1147
*875 FILLER_0_104_1149
*876 FILLER_0_104_1161
*877 FILLER_0_104_1173
*878 FILLER_0_104_1185
*879 FILLER_0_104_1197
*880 FILLER_0_104_1203
*881 FILLER_0_104_1205
*882 FILLER_0_104_121
*883 FILLER_0_104_1217
*884 FILLER_0_104_1229
*885 FILLER_0_104_1241
*886 FILLER_0_104_1253
*887 FILLER_0_104_1259
*888 FILLER_0_104_1261
*889 FILLER_0_104_1273
*890 FILLER_0_104_1285
*891 FILLER_0_104_1297
*892 FILLER_0_104_1309
*893 FILLER_0_104_1315
*894 FILLER_0_104_1317
*895 FILLER_0_104_1329
*896 FILLER_0_104_133
*897 FILLER_0_104_1341
*898 FILLER_0_104_1353
*899 FILLER_0_104_1365
*900 FILLER_0_104_1371
*901 FILLER_0_104_1373
*902 FILLER_0_104_1385
*903 FILLER_0_104_139
*904 FILLER_0_104_1397
*905 FILLER_0_104_1409
*906 FILLER_0_104_141
*907 FILLER_0_104_1421
*908 FILLER_0_104_1427
*909 FILLER_0_104_1429
*910 FILLER_0_104_1441
*911 FILLER_0_104_1453
*912 FILLER_0_104_1465
*913 FILLER_0_104_1477
*914 FILLER_0_104_1483
*915 FILLER_0_104_1485
*916 FILLER_0_104_1493
*917 FILLER_0_104_15
*918 FILLER_0_104_153
*919 FILLER_0_104_165
*920 FILLER_0_104_177
*921 FILLER_0_104_189
*922 FILLER_0_104_195
*923 FILLER_0_104_197
*924 FILLER_0_104_209
*925 FILLER_0_104_221
*926 FILLER_0_104_233
*927 FILLER_0_104_245
*928 FILLER_0_104_251
*929 FILLER_0_104_253
*930 FILLER_0_104_265
*931 FILLER_0_104_27
*932 FILLER_0_104_277
*933 FILLER_0_104_289
*934 FILLER_0_104_29
*935 FILLER_0_104_3
*936 FILLER_0_104_301
*937 FILLER_0_104_307
*938 FILLER_0_104_309
*939 FILLER_0_104_321
*940 FILLER_0_104_333
*941 FILLER_0_104_345
*942 FILLER_0_104_357
*943 FILLER_0_104_363
*944 FILLER_0_104_365
*945 FILLER_0_104_377
*946 FILLER_0_104_389
*947 FILLER_0_104_401
*948 FILLER_0_104_41
*949 FILLER_0_104_413
*950 FILLER_0_104_419
*951 FILLER_0_104_421
*952 FILLER_0_104_433
*953 FILLER_0_104_445
*954 FILLER_0_104_457
*955 FILLER_0_104_469
*956 FILLER_0_104_475
*957 FILLER_0_104_477
*958 FILLER_0_104_489
*959 FILLER_0_104_501
*960 FILLER_0_104_513
*961 FILLER_0_104_525
*962 FILLER_0_104_53
*963 FILLER_0_104_531
*964 FILLER_0_104_533
*965 FILLER_0_104_545
*966 FILLER_0_104_557
*967 FILLER_0_104_569
*968 FILLER_0_104_581
*969 FILLER_0_104_587
*970 FILLER_0_104_589
*971 FILLER_0_104_601
*972 FILLER_0_104_613
*973 FILLER_0_104_625
*974 FILLER_0_104_637
*975 FILLER_0_104_643
*976 FILLER_0_104_645
*977 FILLER_0_104_65
*978 FILLER_0_104_657
*979 FILLER_0_104_669
*980 FILLER_0_104_681
*981 FILLER_0_104_693
*982 FILLER_0_104_699
*983 FILLER_0_104_701
*984 FILLER_0_104_713
*985 FILLER_0_104_725
*986 FILLER_0_104_737
*987 FILLER_0_104_749
*988 FILLER_0_104_755
*989 FILLER_0_104_757
*990 FILLER_0_104_769
*991 FILLER_0_104_77
*992 FILLER_0_104_781
*993 FILLER_0_104_793
*994 FILLER_0_104_805
*995 FILLER_0_104_811
*996 FILLER_0_104_813
*997 FILLER_0_104_825
*998 FILLER_0_104_83
*999 FILLER_0_104_837
*1000 FILLER_0_104_849
*1001 FILLER_0_104_85
*1002 FILLER_0_104_861
*1003 FILLER_0_104_867
*1004 FILLER_0_104_869
*1005 FILLER_0_104_881
*1006 FILLER_0_104_893
*1007 FILLER_0_104_905
*1008 FILLER_0_104_917
*1009 FILLER_0_104_923
*1010 FILLER_0_104_925
*1011 FILLER_0_104_937
*1012 FILLER_0_104_949
*1013 FILLER_0_104_961
*1014 FILLER_0_104_97
*1015 FILLER_0_104_973
*1016 FILLER_0_104_979
*1017 FILLER_0_104_981
*1018 FILLER_0_104_993
*1019 FILLER_0_105_1001
*1020 FILLER_0_105_1007
*1021 FILLER_0_105_1009
*1022 FILLER_0_105_1021
*1023 FILLER_0_105_1033
*1024 FILLER_0_105_1045
*1025 FILLER_0_105_105
*1026 FILLER_0_105_1057
*1027 FILLER_0_105_1063
*1028 FILLER_0_105_1065
*1029 FILLER_0_105_1077
*1030 FILLER_0_105_1089
*1031 FILLER_0_105_1101
*1032 FILLER_0_105_111
*1033 FILLER_0_105_1113
*1034 FILLER_0_105_1119
*1035 FILLER_0_105_1121
*1036 FILLER_0_105_113
*1037 FILLER_0_105_1133
*1038 FILLER_0_105_1145
*1039 FILLER_0_105_1157
*1040 FILLER_0_105_1169
*1041 FILLER_0_105_1175
*1042 FILLER_0_105_1177
*1043 FILLER_0_105_1189
*1044 FILLER_0_105_1201
*1045 FILLER_0_105_1213
*1046 FILLER_0_105_1225
*1047 FILLER_0_105_1231
*1048 FILLER_0_105_1233
*1049 FILLER_0_105_1245
*1050 FILLER_0_105_125
*1051 FILLER_0_105_1257
*1052 FILLER_0_105_1269
*1053 FILLER_0_105_1281
*1054 FILLER_0_105_1287
*1055 FILLER_0_105_1289
*1056 FILLER_0_105_1301
*1057 FILLER_0_105_1313
*1058 FILLER_0_105_1325
*1059 FILLER_0_105_1337
*1060 FILLER_0_105_1343
*1061 FILLER_0_105_1345
*1062 FILLER_0_105_1357
*1063 FILLER_0_105_1369
*1064 FILLER_0_105_137
*1065 FILLER_0_105_1381
*1066 FILLER_0_105_1393
*1067 FILLER_0_105_1399
*1068 FILLER_0_105_1401
*1069 FILLER_0_105_1413
*1070 FILLER_0_105_1425
*1071 FILLER_0_105_1437
*1072 FILLER_0_105_1449
*1073 FILLER_0_105_1455
*1074 FILLER_0_105_1457
*1075 FILLER_0_105_1469
*1076 FILLER_0_105_1481
*1077 FILLER_0_105_149
*1078 FILLER_0_105_1493
*1079 FILLER_0_105_15
*1080 FILLER_0_105_161
*1081 FILLER_0_105_167
*1082 FILLER_0_105_169
*1083 FILLER_0_105_181
*1084 FILLER_0_105_193
*1085 FILLER_0_105_205
*1086 FILLER_0_105_217
*1087 FILLER_0_105_223
*1088 FILLER_0_105_225
*1089 FILLER_0_105_237
*1090 FILLER_0_105_249
*1091 FILLER_0_105_261
*1092 FILLER_0_105_27
*1093 FILLER_0_105_273
*1094 FILLER_0_105_279
*1095 FILLER_0_105_281
*1096 FILLER_0_105_293
*1097 FILLER_0_105_3
*1098 FILLER_0_105_305
*1099 FILLER_0_105_317
*1100 FILLER_0_105_329
*1101 FILLER_0_105_335
*1102 FILLER_0_105_337
*1103 FILLER_0_105_349
*1104 FILLER_0_105_361
*1105 FILLER_0_105_373
*1106 FILLER_0_105_385
*1107 FILLER_0_105_39
*1108 FILLER_0_105_391
*1109 FILLER_0_105_393
*1110 FILLER_0_105_405
*1111 FILLER_0_105_417
*1112 FILLER_0_105_429
*1113 FILLER_0_105_441
*1114 FILLER_0_105_447
*1115 FILLER_0_105_449
*1116 FILLER_0_105_461
*1117 FILLER_0_105_473
*1118 FILLER_0_105_485
*1119 FILLER_0_105_497
*1120 FILLER_0_105_503
*1121 FILLER_0_105_505
*1122 FILLER_0_105_51
*1123 FILLER_0_105_517
*1124 FILLER_0_105_529
*1125 FILLER_0_105_541
*1126 FILLER_0_105_55
*1127 FILLER_0_105_553
*1128 FILLER_0_105_559
*1129 FILLER_0_105_561
*1130 FILLER_0_105_57
*1131 FILLER_0_105_573
*1132 FILLER_0_105_585
*1133 FILLER_0_105_597
*1134 FILLER_0_105_609
*1135 FILLER_0_105_615
*1136 FILLER_0_105_617
*1137 FILLER_0_105_629
*1138 FILLER_0_105_641
*1139 FILLER_0_105_653
*1140 FILLER_0_105_665
*1141 FILLER_0_105_671
*1142 FILLER_0_105_673
*1143 FILLER_0_105_685
*1144 FILLER_0_105_69
*1145 FILLER_0_105_697
*1146 FILLER_0_105_709
*1147 FILLER_0_105_721
*1148 FILLER_0_105_727
*1149 FILLER_0_105_729
*1150 FILLER_0_105_741
*1151 FILLER_0_105_753
*1152 FILLER_0_105_765
*1153 FILLER_0_105_777
*1154 FILLER_0_105_783
*1155 FILLER_0_105_785
*1156 FILLER_0_105_797
*1157 FILLER_0_105_809
*1158 FILLER_0_105_81
*1159 FILLER_0_105_821
*1160 FILLER_0_105_833
*1161 FILLER_0_105_839
*1162 FILLER_0_105_841
*1163 FILLER_0_105_853
*1164 FILLER_0_105_865
*1165 FILLER_0_105_877
*1166 FILLER_0_105_889
*1167 FILLER_0_105_895
*1168 FILLER_0_105_897
*1169 FILLER_0_105_909
*1170 FILLER_0_105_921
*1171 FILLER_0_105_93
*1172 FILLER_0_105_933
*1173 FILLER_0_105_945
*1174 FILLER_0_105_951
*1175 FILLER_0_105_953
*1176 FILLER_0_105_965
*1177 FILLER_0_105_977
*1178 FILLER_0_105_989
*1179 FILLER_0_106_1005
*1180 FILLER_0_106_1017
*1181 FILLER_0_106_1029
*1182 FILLER_0_106_1035
*1183 FILLER_0_106_1037
*1184 FILLER_0_106_1049
*1185 FILLER_0_106_1061
*1186 FILLER_0_106_1073
*1187 FILLER_0_106_1085
*1188 FILLER_0_106_109
*1189 FILLER_0_106_1091
*1190 FILLER_0_106_1093
*1191 FILLER_0_106_1105
*1192 FILLER_0_106_1117
*1193 FILLER_0_106_1129
*1194 FILLER_0_106_1141
*1195 FILLER_0_106_1147
*1196 FILLER_0_106_1149
*1197 FILLER_0_106_1161
*1198 FILLER_0_106_1173
*1199 FILLER_0_106_1185
*1200 FILLER_0_106_1197
*1201 FILLER_0_106_1203
*1202 FILLER_0_106_1205
*1203 FILLER_0_106_121
*1204 FILLER_0_106_1217
*1205 FILLER_0_106_1229
*1206 FILLER_0_106_1241
*1207 FILLER_0_106_1253
*1208 FILLER_0_106_1259
*1209 FILLER_0_106_1261
*1210 FILLER_0_106_1273
*1211 FILLER_0_106_1285
*1212 FILLER_0_106_1297
*1213 FILLER_0_106_1309
*1214 FILLER_0_106_1315
*1215 FILLER_0_106_1317
*1216 FILLER_0_106_1329
*1217 FILLER_0_106_133
*1218 FILLER_0_106_1341
*1219 FILLER_0_106_1353
*1220 FILLER_0_106_1365
*1221 FILLER_0_106_1371
*1222 FILLER_0_106_1373
*1223 FILLER_0_106_1385
*1224 FILLER_0_106_139
*1225 FILLER_0_106_1397
*1226 FILLER_0_106_1409
*1227 FILLER_0_106_141
*1228 FILLER_0_106_1421
*1229 FILLER_0_106_1427
*1230 FILLER_0_106_1429
*1231 FILLER_0_106_1441
*1232 FILLER_0_106_1453
*1233 FILLER_0_106_1465
*1234 FILLER_0_106_1477
*1235 FILLER_0_106_1483
*1236 FILLER_0_106_1485
*1237 FILLER_0_106_1493
*1238 FILLER_0_106_15
*1239 FILLER_0_106_153
*1240 FILLER_0_106_165
*1241 FILLER_0_106_177
*1242 FILLER_0_106_189
*1243 FILLER_0_106_195
*1244 FILLER_0_106_197
*1245 FILLER_0_106_209
*1246 FILLER_0_106_221
*1247 FILLER_0_106_233
*1248 FILLER_0_106_245
*1249 FILLER_0_106_251
*1250 FILLER_0_106_253
*1251 FILLER_0_106_265
*1252 FILLER_0_106_27
*1253 FILLER_0_106_277
*1254 FILLER_0_106_289
*1255 FILLER_0_106_29
*1256 FILLER_0_106_3
*1257 FILLER_0_106_301
*1258 FILLER_0_106_307
*1259 FILLER_0_106_309
*1260 FILLER_0_106_321
*1261 FILLER_0_106_333
*1262 FILLER_0_106_345
*1263 FILLER_0_106_357
*1264 FILLER_0_106_363
*1265 FILLER_0_106_365
*1266 FILLER_0_106_377
*1267 FILLER_0_106_389
*1268 FILLER_0_106_401
*1269 FILLER_0_106_41
*1270 FILLER_0_106_413
*1271 FILLER_0_106_419
*1272 FILLER_0_106_421
*1273 FILLER_0_106_433
*1274 FILLER_0_106_445
*1275 FILLER_0_106_457
*1276 FILLER_0_106_469
*1277 FILLER_0_106_475
*1278 FILLER_0_106_477
*1279 FILLER_0_106_489
*1280 FILLER_0_106_501
*1281 FILLER_0_106_513
*1282 FILLER_0_106_525
*1283 FILLER_0_106_53
*1284 FILLER_0_106_531
*1285 FILLER_0_106_533
*1286 FILLER_0_106_545
*1287 FILLER_0_106_557
*1288 FILLER_0_106_569
*1289 FILLER_0_106_581
*1290 FILLER_0_106_587
*1291 FILLER_0_106_589
*1292 FILLER_0_106_601
*1293 FILLER_0_106_613
*1294 FILLER_0_106_625
*1295 FILLER_0_106_637
*1296 FILLER_0_106_643
*1297 FILLER_0_106_645
*1298 FILLER_0_106_65
*1299 FILLER_0_106_657
*1300 FILLER_0_106_669
*1301 FILLER_0_106_681
*1302 FILLER_0_106_693
*1303 FILLER_0_106_699
*1304 FILLER_0_106_701
*1305 FILLER_0_106_713
*1306 FILLER_0_106_725
*1307 FILLER_0_106_737
*1308 FILLER_0_106_749
*1309 FILLER_0_106_755
*1310 FILLER_0_106_757
*1311 FILLER_0_106_769
*1312 FILLER_0_106_77
*1313 FILLER_0_106_781
*1314 FILLER_0_106_793
*1315 FILLER_0_106_805
*1316 FILLER_0_106_811
*1317 FILLER_0_106_813
*1318 FILLER_0_106_825
*1319 FILLER_0_106_83
*1320 FILLER_0_106_837
*1321 FILLER_0_106_849
*1322 FILLER_0_106_85
*1323 FILLER_0_106_861
*1324 FILLER_0_106_867
*1325 FILLER_0_106_869
*1326 FILLER_0_106_881
*1327 FILLER_0_106_893
*1328 FILLER_0_106_905
*1329 FILLER_0_106_917
*1330 FILLER_0_106_923
*1331 FILLER_0_106_925
*1332 FILLER_0_106_937
*1333 FILLER_0_106_949
*1334 FILLER_0_106_961
*1335 FILLER_0_106_97
*1336 FILLER_0_106_973
*1337 FILLER_0_106_979
*1338 FILLER_0_106_981
*1339 FILLER_0_106_993
*1340 FILLER_0_107_1001
*1341 FILLER_0_107_1007
*1342 FILLER_0_107_1009
*1343 FILLER_0_107_1021
*1344 FILLER_0_107_1033
*1345 FILLER_0_107_1045
*1346 FILLER_0_107_105
*1347 FILLER_0_107_1057
*1348 FILLER_0_107_1063
*1349 FILLER_0_107_1065
*1350 FILLER_0_107_1077
*1351 FILLER_0_107_1089
*1352 FILLER_0_107_1101
*1353 FILLER_0_107_111
*1354 FILLER_0_107_1113
*1355 FILLER_0_107_1119
*1356 FILLER_0_107_1121
*1357 FILLER_0_107_113
*1358 FILLER_0_107_1133
*1359 FILLER_0_107_1145
*1360 FILLER_0_107_1157
*1361 FILLER_0_107_1169
*1362 FILLER_0_107_1175
*1363 FILLER_0_107_1177
*1364 FILLER_0_107_1189